CM HAM RAdio SW Tunable Antenna 2023-3-18 17:16
CE ----------
GW   1   5  0.000000  0.000000  11.00000  0.000000  0.000000  16.50000  0.050000
GW   2   5  0.000000  0.000000  1.000000  3.000000  0.000000  1.000000  0.050000
GW   3   5  2.000000  -1.00000  1.000000  3.000000  0.000000  1.000000  0.050000
GW   4   5  2.000000  1.000000  1.000000  3.000000  0.000000  1.000000  0.050000
GW   5   5  -2.00000  -3.00000  11.50000  -2.00000  17.00000  11.50000  0.050000
GW   6   5  -12.0000  -3.00000  5.500000  -12.0000  17.00000  5.500000  0.050000
GW   7   5  8.000000  -3.00000  5.500000  8.000000  17.00000  5.500000  0.050000
GW   8   5  -2.00000  -3.00000  11.50000  -12.0000  -3.00000  5.500000  0.050000
GW   9   5  -2.00000  -3.00000  11.50000  8.000000  -3.00000  5.500000  0.050000
GW  10   5  -2.00000  17.00000  11.50000  -12.0000  17.00000  5.500000  0.050000
GW  11   5  -2.00000  17.00000  11.50000  8.000000  17.00000  5.500000  0.050000
GW  12   5  -12.0000  -3.00000  5.500000  8.000000  -3.00000  5.500000  0.050000
GW  13   5  -12.0000  17.00000  5.500000  8.000000  17.00000  5.500000  0.050000
GW  14   5  -12.0000  -3.00000  5.500000  -12.0000  -3.00000  0.500000  0.050000
GW  15   5  -12.0000  17.00000  5.500000  -12.0000  17.00000  0.500000  0.050000
GW  16   5  8.000000  -3.00000  5.500000  8.000000  -3.00000  0.500000  0.050000
GW  17   5  8.000000  17.00000  5.500000  8.000000  17.00000  0.500000  0.050000
GW  18   5  -12.0000  -3.00000  0.500000  -12.0000  17.00000  0.500000  0.050000
GW  19   5  8.000000  -3.00000  0.500000  8.000000  17.00000  0.500000  0.050000
GW  20   5  -12.0000  -3.00000  0.500000  8.000000  -3.00000  0.500000  0.050000
GW  21   5  -12.0000  17.00000  0.500000  8.000000  17.00000  0.500000  0.050000
GW  22   1  0.100000  -0.20000  15.00000  0.100000  0.200000  15.00000  0.010000
GW  23  11  0.100000  -0.20000  15.00000  0.100000  -2.84000  15.00000  0.010000
GW  24  11  0.100000  0.200000  15.00000  0.100000  2.840000  15.00000  0.010000
GW  25  11  0.100000  -2.84000  15.00000  0.100000  -5.40000  15.00000  0.010000
GW  26  11  0.100000  2.840000  15.00000  0.100000  5.400000  15.00000  0.010000
GW  27  11  0.100000  -5.40000  15.00000  0.100000  -5.88000  14.77000  0.010000
GW  28  11  0.100000  5.400000  15.00000  0.100000  5.880000  14.77000  0.010000
GW  29  11  0.100000  -5.88000  14.77000  0.100000  -5.88000  14.27000  0.010000
GW  30  11  0.100000  5.880000  14.77000  0.100000  5.880000  14.27000  0.010000
GW  31  11  0.100000  -5.88000  14.27000  0.100000  -5.40000  14.04000  0.010000
GW  32  11  0.100000  5.880000  14.27000  0.100000  5.400000  14.04000  0.010000
GW  33  11  0.100000  -5.40000  14.04000  0.100000  -0.70000  14.04000  0.010000
GW  34  11  0.100000  5.400000  14.04000  0.100000  0.700000  14.04000  0.010000
GW  35  11  0.100000  -2.84000  14.99700  0.100000  -2.84000  14.09000  0.010000
GW  36  11  0.100000  2.840000  14.99700  0.100000  2.840000  14.09000  0.010000
GW  37  11  3.100000  0.000000  14.90000  -3.90000  0.000000  14.90000  0.010000
GE  1
FR  0    1    0    0  7.000000  0.000000
GN  0    0    0    0  13.00000  0.005000
EX  0   22    1    1  71.00000  0.000000                                        
XQ
RP  0    1  360 1000  55.00000     0.000     0.000     1.000 5.000E+03
RP  0  360    1 1000   -90.000  0.000000     1.000     0.000 5.000E+03
RP  0   91  120 1001     0.000     0.000     2.000     3.000 5.000E+03
XQ
FR  0    1    0    0  7.020000  0.000000
GN  0    0    0    0  13.00000  0.005000
EX  0   22    1    1  71.00000  0.000000                                        
XQ
RP  0    1  360 1000  55.00000     0.000     0.000     1.000 5.000E+03
RP  0  360    1 1000   -90.000  0.000000     1.000     0.000 5.000E+03
XQ
FR  0    1    0    0  7.040000  0.000000
GN  0    0    0    0  13.00000  0.005000
EX  0   22    1    1  71.00000  0.000000                                        
XQ
RP  0    1  360 1000  55.00000     0.000     0.000     1.000 5.000E+03
RP  0  360    1 1000   -90.000  0.000000     1.000     0.000 5.000E+03
XQ
FR  0    1    0    0  7.060000  0.000000
GN  0    0    0    0  13.00000  0.005000
EX  0   22    1    1  71.00000  0.000000                                        
XQ
RP  0    1  360 1000  55.00000     0.000     0.000     1.000 5.000E+03
RP  0  360    1 1000   -90.000  0.000000     1.000     0.000 5.000E+03
XQ
FR  0    1    0    0  7.080000  0.000000
GN  0    0    0    0  13.00000  0.005000
EX  0   22    1    1  71.00000  0.000000                                        
XQ
RP  0    1  360 1000  55.00000     0.000     0.000     1.000 5.000E+03
RP  0  360    1 1000   -90.000  0.000000     1.000     0.000 5.000E+03
XQ
FR  0    1    0    0  7.100000  0.000000
GN  0    0    0    0  13.00000  0.005000
EX  0   22    1    1  71.00000  0.000000                                        
XQ
RP  0    1  360 1000  55.00000     0.000     0.000     1.000 5.000E+03
RP  0  360    1 1000   -90.000  0.000000     1.000     0.000 5.000E+03
XQ
FR  0    1    0    0  7.120000  0.000000
GN  0    0    0    0  13.00000  0.005000
EX  0   22    1    1  71.00000  0.000000                                        
XQ
RP  0    1  360 1000  55.00000     0.000     0.000     1.000 5.000E+03
RP  0  360    1 1000   -90.000  0.000000     1.000     0.000 5.000E+03
XQ
FR  0    1    0    0  7.140000  0.000000
GN  0    0    0    0  13.00000  0.005000
EX  0   22    1    1  71.00000  0.000000                                        
XQ
RP  0    1  360 1000  55.00000     0.000     0.000     1.000 5.000E+03
RP  0  360    1 1000   -90.000  0.000000     1.000     0.000 5.000E+03
XQ
FR  0    1    0    0  7.160000  0.000000
GN  0    0    0    0  13.00000  0.005000
EX  0   22    1    1  71.00000  0.000000                                        
XQ
RP  0    1  360 1000  55.00000     0.000     0.000     1.000 5.000E+03
RP  0  360    1 1000   -90.000  0.000000     1.000     0.000 5.000E+03
XQ
FR  0    1    0    0  7.180000  0.000000
GN  0    0    0    0  13.00000  0.005000
EX  0   22    1    1  71.00000  0.000000                                        
XQ
RP  0    1  360 1000  55.00000     0.000     0.000     1.000 5.000E+03
RP  0  360    1 1000   -90.000  0.000000     1.000     0.000 5.000E+03
XQ
FR  0    1    0    0  7.200000  0.000000
GN  0    0    0    0  13.00000  0.005000
EX  0   22    1    1  71.00000  0.000000                                        
XQ
RP  0    1  360 1000  55.00000     0.000     0.000     1.000 5.000E+03
RP  0  360    1 1000   -90.000  0.000000     1.000     0.000 5.000E+03
XQ
EN
