CM HAM RAdio SW Tunable Antenna 2023-3-18 17:16
CE ----------
GW   1   5  0.000000  0.000000  11.00000  0.000000  0.000000  16.50000  0.050000
GW   2   5  0.000000  0.000000  1.000000  3.000000  0.000000  1.000000  0.050000
GW   3   5  2.000000  -1.00000  1.000000  3.000000  0.000000  1.000000  0.050000
GW   4   5  2.000000  1.000000  1.000000  3.000000  0.000000  1.000000  0.050000
GW   5   1  0.100000  -0.20000  15.00000  0.100000  0.200000  15.00000  0.010000
GW   6  11  0.100000  -0.20000  15.00000  0.100000  -2.84000  15.00000  0.010000
GW   7  11  0.100000  0.200000  15.00000  0.100000  2.840000  15.00000  0.010000
GW   8  11  0.100000  -2.84000  15.00000  0.100000  -5.05000  15.00000  0.010000
GW   9  11  0.100000  2.840000  15.00000  0.100000  5.050000  15.00000  0.010000
GW  10  11  0.100000  -2.84000  14.99700  0.100000  -2.84000  14.09000  0.010000
GW  11  11  0.100000  2.840000  14.99700  0.100000  2.840000  14.09000  0.010000
GW  12  11  -2.07000  -5.60000  15.00000  -2.07000  5.600000  15.00000  0.010000
GW  13  11  2.670000  -4.60000  15.00000  2.670000  4.600000  15.00000  0.010000
GW  14  11  3.100000  0.000000  14.90000  -3.90000  0.000000  14.90000  0.010000
GE  1
FR  0    1    0    0  14.00000  0.000000
GN  0    0    0    0  13.00000  0.005000
EX  0    5    1    1  71.00000  0.000000                                        
XQ
RP  0    1  360 1000  70.00000     0.000     0.000     1.000 5.000E+03
RP  0  360    1 1000   -90.000  0.000000     1.000     0.000 5.000E+03
RP  0   91  120 1001     0.000     0.000     2.000     3.000 5.000E+03
XQ
FR  0    1    0    0  14.03500  0.000000
GN  0    0    0    0  13.00000  0.005000
EX  0    5    1    1  71.00000  0.000000                                        
XQ
RP  0    1  360 1000  70.00000     0.000     0.000     1.000 5.000E+03
RP  0  360    1 1000   -90.000  0.000000     1.000     0.000 5.000E+03
XQ
FR  0    1    0    0  14.07000  0.000000
GN  0    0    0    0  13.00000  0.005000
EX  0    5    1    1  71.00000  0.000000                                        
XQ
RP  0    1  360 1000  70.00000     0.000     0.000     1.000 5.000E+03
RP  0  360    1 1000   -90.000  0.000000     1.000     0.000 5.000E+03
XQ
FR  0    1    0    0  14.10500  0.000000
GN  0    0    0    0  13.00000  0.005000
EX  0    5    1    1  71.00000  0.000000                                        
XQ
RP  0    1  360 1000  70.00000     0.000     0.000     1.000 5.000E+03
RP  0  360    1 1000   -90.000  0.000000     1.000     0.000 5.000E+03
XQ
FR  0    1    0    0  14.14000  0.000000
GN  0    0    0    0  13.00000  0.005000
EX  0    5    1    1  71.00000  0.000000                                        
XQ
RP  0    1  360 1000  70.00000     0.000     0.000     1.000 5.000E+03
RP  0  360    1 1000   -90.000  0.000000     1.000     0.000 5.000E+03
XQ
FR  0    1    0    0  14.17500  0.000000
GN  0    0    0    0  13.00000  0.005000
EX  0    5    1    1  71.00000  0.000000                                        
XQ
RP  0    1  360 1000  70.00000     0.000     0.000     1.000 5.000E+03
RP  0  360    1 1000   -90.000  0.000000     1.000     0.000 5.000E+03
XQ
FR  0    1    0    0  14.21000  0.000000
GN  0    0    0    0  13.00000  0.005000
EX  0    5    1    1  71.00000  0.000000                                        
XQ
RP  0    1  360 1000  70.00000     0.000     0.000     1.000 5.000E+03
RP  0  360    1 1000   -90.000  0.000000     1.000     0.000 5.000E+03
XQ
FR  0    1    0    0  14.24500  0.000000
GN  0    0    0    0  13.00000  0.005000
EX  0    5    1    1  71.00000  0.000000                                        
XQ
RP  0    1  360 1000  70.00000     0.000     0.000     1.000 5.000E+03
RP  0  360    1 1000   -90.000  0.000000     1.000     0.000 5.000E+03
XQ
FR  0    1    0    0  14.28000  0.000000
GN  0    0    0    0  13.00000  0.005000
EX  0    5    1    1  71.00000  0.000000                                        
XQ
RP  0    1  360 1000  70.00000     0.000     0.000     1.000 5.000E+03
RP  0  360    1 1000   -90.000  0.000000     1.000     0.000 5.000E+03
XQ
FR  0    1    0    0  14.31500  0.000000
GN  0    0    0    0  13.00000  0.005000
EX  0    5    1    1  71.00000  0.000000                                        
XQ
RP  0    1  360 1000  70.00000     0.000     0.000     1.000 5.000E+03
RP  0  360    1 1000   -90.000  0.000000     1.000     0.000 5.000E+03
XQ
FR  0    1    0    0  14.35000  0.000000
GN  0    0    0    0  13.00000  0.005000
EX  0    5    1    1  71.00000  0.000000                                        
XQ
RP  0    1  360 1000  70.00000     0.000     0.000     1.000 5.000E+03
RP  0  360    1 1000   -90.000  0.000000     1.000     0.000 5.000E+03
XQ
EN
