CM HAM RAdio SW Tunable Antenna 2023-3-18 17:15
CE ----------
GW   1   5  0.000000  0.000000  11.00000  0.000000  0.000000  16.50000  0.050000
GW   2   5  0.000000  0.000000  1.000000  3.000000  0.000000  1.000000  0.050000
GW   3   5  2.000000  -1.00000  1.000000  3.000000  0.000000  1.000000  0.050000
GW   4   5  2.000000  1.000000  1.000000  3.000000  0.000000  1.000000  0.050000
GW   5   5  -2.00000  -3.00000  11.50000  -2.00000  17.00000  11.50000  0.050000
GW   6   5  -12.0000  -3.00000  5.500000  -12.0000  17.00000  5.500000  0.050000
GW   7   5  8.000000  -3.00000  5.500000  8.000000  17.00000  5.500000  0.050000
GW   8   5  -2.00000  -3.00000  11.50000  -12.0000  -3.00000  5.500000  0.050000
GW   9   5  -2.00000  -3.00000  11.50000  8.000000  -3.00000  5.500000  0.050000
GW  10   5  -2.00000  17.00000  11.50000  -12.0000  17.00000  5.500000  0.050000
GW  11   5  -2.00000  17.00000  11.50000  8.000000  17.00000  5.500000  0.050000
GW  12   5  -12.0000  -3.00000  5.500000  8.000000  -3.00000  5.500000  0.050000
GW  13   5  -12.0000  17.00000  5.500000  8.000000  17.00000  5.500000  0.050000
GW  14   5  -12.0000  -3.00000  5.500000  -12.0000  -3.00000  0.500000  0.050000
GW  15   5  -12.0000  17.00000  5.500000  -12.0000  17.00000  0.500000  0.050000
GW  16   5  8.000000  -3.00000  5.500000  8.000000  -3.00000  0.500000  0.050000
GW  17   5  8.000000  17.00000  5.500000  8.000000  17.00000  0.500000  0.050000
GW  18   5  -12.0000  -3.00000  0.500000  -12.0000  17.00000  0.500000  0.050000
GW  19   5  8.000000  -3.00000  0.500000  8.000000  17.00000  0.500000  0.050000
GW  20   5  -12.0000  -3.00000  0.500000  8.000000  -3.00000  0.500000  0.050000
GW  21   5  -12.0000  17.00000  0.500000  8.000000  17.00000  0.500000  0.050000
GW  22   5  5.000000  17.50000  11.50000  5.000000  37.50000  11.50000  0.050000
GW  23   5  -5.00000  17.50000  5.500000  -5.00000  37.50000  5.500000  0.050000
GW  24   5  15.00000  17.50000  5.500000  15.00000  37.50000  5.500000  0.050000
GW  25   5  5.000000  17.50000  11.50000  -5.00000  17.50000  5.500000  0.050000
GW  26   5  5.000000  17.50000  11.50000  15.00000  17.50000  5.500000  0.050000
GW  27   5  5.000000  37.50000  11.50000  -5.00000  37.50000  5.500000  0.050000
GW  28   5  5.000000  37.50000  11.50000  15.00000  37.50000  5.500000  0.050000
GW  29   5  -5.00000  17.50000  5.500000  15.00000  17.50000  5.500000  0.050000
GW  30   5  -5.00000  37.50000  5.500000  15.00000  37.50000  5.500000  0.050000
GW  31   5  -5.00000  17.50000  5.500000  -5.00000  17.50000  0.500000  0.050000
GW  32   5  -5.00000  37.50000  5.500000  -5.00000  37.50000  0.500000  0.050000
GW  33   5  15.00000  17.50000  5.500000  15.00000  17.50000  0.500000  0.050000
GW  34   5  15.00000  37.50000  5.500000  15.00000  37.50000  0.500000  0.050000
GW  35   5  -5.00000  17.50000  0.500000  -5.00000  37.50000  0.500000  0.050000
GW  36   5  15.00000  17.50000  0.500000  15.00000  37.50000  0.500000  0.050000
GW  37   5  -5.00000  17.50000  0.500000  15.00000  17.50000  0.500000  0.050000
GW  38   5  -5.00000  37.50000  0.500000  15.00000  37.50000  0.500000  0.050000
GW  39   5  -2.00000  -33.0000  11.50000  -2.00000  -13.0000  11.50000  0.050000
GW  40   5  -12.0000  -33.0000  5.500000  -12.0000  -13.0000  5.500000  0.050000
GW  41   5  8.000000  -33.0000  5.500000  8.000000  -13.0000  5.500000  0.050000
GW  42   5  -2.00000  -33.0000  11.50000  -12.0000  -33.0000  5.500000  0.050000
GW  43   5  -2.00000  -33.0000  11.50000  8.000000  -33.0000  5.500000  0.050000
GW  44   5  -2.00000  -13.0000  11.50000  -12.0000  -13.0000  5.500000  0.050000
GW  45   5  -2.00000  -13.0000  11.50000  8.000000  -13.0000  5.500000  0.050000
GW  46   5  -12.0000  -33.0000  5.500000  8.000000  -33.0000  5.500000  0.050000
GW  47   5  -12.0000  -13.0000  5.500000  8.000000  -13.0000  5.500000  0.050000
GW  48   5  -12.0000  -33.0000  5.500000  -12.0000  -33.0000  0.500000  0.050000
GW  49   5  -12.0000  -13.0000  5.500000  -12.0000  -13.0000  0.500000  0.050000
GW  50   5  8.000000  -33.0000  5.500000  8.000000  -33.0000  0.500000  0.050000
GW  51   5  8.000000  -13.0000  5.500000  8.000000  -13.0000  0.500000  0.050000
GW  52   5  -12.0000  -33.0000  0.500000  -12.0000  -13.0000  0.500000  0.050000
GW  53   5  8.000000  -33.0000  0.500000  8.000000  -13.0000  0.500000  0.050000
GW  54   5  -12.0000  -33.0000  0.500000  8.000000  -33.0000  0.500000  0.050000
GW  55   5  -12.0000  -13.0000  0.500000  8.000000  -13.0000  0.500000  0.050000
GW  56   5  83.00000  13.00000  21.50000  63.00000  13.00000  21.50000  0.050000
GW  57   5  83.00000  3.000004  15.50000  63.00000  3.000003  15.50000  0.050000
GW  58   5  83.00000  23.00000  15.50000  63.00000  23.00000  15.50000  0.050000
GW  59   5  83.00000  13.00000  21.50000  83.00000  3.000004  15.50000  0.050000
GW  60   5  83.00000  13.00000  21.50000  83.00000  23.00000  15.50000  0.050000
GW  61   5  63.00000  13.00000  21.50000  63.00000  3.000003  15.50000  0.050000
GW  62   5  63.00000  13.00000  21.50000  63.00000  23.00000  15.50000  0.050000
GW  63   5  83.00000  3.000004  15.50000  83.00000  23.00000  15.50000  0.050000
GW  64   5  63.00000  3.000003  15.50000  63.00000  23.00000  15.50000  0.050000
GW  65   5  83.00000  3.000004  15.50000  83.00000  3.000004  0.500000  0.050000
GW  66   5  63.00000  3.000003  15.50000  63.00000  3.000003  0.500000  0.050000
GW  67   5  83.00000  23.00000  15.50000  83.00000  23.00000  0.500000  0.050000
GW  68   5  63.00000  23.00000  15.50000  63.00000  23.00000  0.500000  0.050000
GW  69   5  83.00000  3.000004  0.500000  63.00000  3.000003  0.500000  0.050000
GW  70   5  83.00000  23.00000  0.500000  63.00000  23.00000  0.500000  0.050000
GW  71   5  83.00000  3.000004  0.500000  83.00000  23.00000  0.500000  0.050000
GW  72   5  63.00000  3.000003  0.500000  63.00000  23.00000  0.500000  0.050000
GW  73   5  103.0000  13.00000  21.50000  83.00000  13.00000  21.50000  0.050000
GW  74   5  103.0000  3.000005  15.50000  83.00000  3.000004  15.50000  0.050000
GW  75   5  103.0000  23.00000  15.50000  83.00000  23.00000  15.50000  0.050000
GW  76   5  103.0000  13.00000  21.50000  103.0000  3.000005  15.50000  0.050000
GW  77   5  103.0000  13.00000  21.50000  103.0000  23.00000  15.50000  0.050000
GW  78   5  83.00000  13.00000  21.50000  83.00000  3.000004  15.50000  0.050000
GW  79   5  83.00000  13.00000  21.50000  83.00000  23.00000  15.50000  0.050000
GW  80   5  103.0000  3.000005  15.50000  103.0000  23.00000  15.50000  0.050000
GW  81   5  83.00000  3.000004  15.50000  83.00000  23.00000  15.50000  0.050000
GW  82   5  103.0000  3.000005  15.50000  103.0000  3.000005  0.500000  0.050000
GW  83   5  83.00000  3.000004  15.50000  83.00000  3.000004  0.500000  0.050000
GW  84   5  103.0000  23.00000  15.50000  103.0000  23.00000  0.500000  0.050000
GW  85   5  83.00000  23.00000  15.50000  83.00000  23.00000  0.500000  0.050000
GW  86   5  103.0000  3.000005  0.500000  83.00000  3.000004  0.500000  0.050000
GW  87   5  103.0000  23.00000  0.500000  83.00000  23.00000  0.500000  0.050000
GW  88   5  103.0000  3.000005  0.500000  103.0000  23.00000  0.500000  0.050000
GW  89   5  83.00000  3.000004  0.500000  83.00000  23.00000  0.500000  0.050000
GW  90   5  123.0000  13.00001  21.50000  103.0000  13.00000  21.50000  0.050000
GW  91   5  123.0000  3.000006  15.50000  103.0000  3.000005  15.50000  0.050000
GW  92   5  123.0000  23.00001  15.50000  103.0000  23.00000  15.50000  0.050000
GW  93   5  123.0000  13.00001  21.50000  123.0000  3.000006  15.50000  0.050000
GW  94   5  123.0000  13.00001  21.50000  123.0000  23.00001  15.50000  0.050000
GW  95   5  103.0000  13.00000  21.50000  103.0000  3.000005  15.50000  0.050000
GW  96   5  103.0000  13.00000  21.50000  103.0000  23.00000  15.50000  0.050000
GW  97   5  123.0000  3.000006  15.50000  123.0000  23.00001  15.50000  0.050000
GW  98   5  103.0000  3.000005  15.50000  103.0000  23.00000  15.50000  0.050000
GW  99   5  123.0000  3.000006  15.50000  123.0000  3.000006  0.500000  0.050000
GW 100   5  103.0000  3.000005  15.50000  103.0000  3.000005  0.500000  0.050000
GW 101   5  123.0000  23.00001  15.50000  123.0000  23.00001  0.500000  0.050000
GW 102   5  103.0000  23.00000  15.50000  103.0000  23.00000  0.500000  0.050000
GW 103   5  123.0000  3.000006  0.500000  103.0000  3.000005  0.500000  0.050000
GW 104   5  123.0000  23.00001  0.500000  103.0000  23.00000  0.500000  0.050000
GW 105   5  123.0000  3.000006  0.500000  123.0000  23.00001  0.500000  0.050000
GW 106   5  103.0000  3.000005  0.500000  103.0000  23.00000  0.500000  0.050000
GW 107   5  153.0000  55.00001  21.50000  133.0000  55.00001  21.50000  0.050000
GW 108   5  153.0000  45.00001  15.50000  133.0000  45.00001  15.50000  0.050000
GW 109   5  153.0000  65.00001  15.50000  133.0000  65.00001  15.50000  0.050000
GW 110   5  153.0000  55.00001  21.50000  153.0000  45.00001  15.50000  0.050000
GW 111   5  153.0000  55.00001  21.50000  153.0000  65.00001  15.50000  0.050000
GW 112   5  133.0000  55.00001  21.50000  133.0000  45.00001  15.50000  0.050000
GW 113   5  133.0000  55.00001  21.50000  133.0000  65.00001  15.50000  0.050000
GW 114   5  153.0000  45.00001  15.50000  153.0000  65.00001  15.50000  0.050000
GW 115   5  133.0000  45.00001  15.50000  133.0000  65.00001  15.50000  0.050000
GW 116   5  153.0000  45.00001  15.50000  153.0000  45.00001  0.500000  0.050000
GW 117   5  133.0000  45.00001  15.50000  133.0000  45.00001  0.500000  0.050000
GW 118   5  153.0000  65.00001  15.50000  153.0000  65.00001  0.500000  0.050000
GW 119   5  133.0000  65.00001  15.50000  133.0000  65.00001  0.500000  0.050000
GW 120   5  153.0000  45.00001  0.500000  133.0000  45.00001  0.500000  0.050000
GW 121   5  153.0000  65.00001  0.500000  133.0000  65.00001  0.500000  0.050000
GW 122   5  153.0000  45.00001  0.500000  153.0000  65.00001  0.500000  0.050000
GW 123   5  133.0000  45.00001  0.500000  133.0000  65.00001  0.500000  0.050000
GW 124   5  173.0000  55.00001  21.50000  153.0000  55.00001  21.50000  0.050000
GW 125   5  173.0000  45.00001  15.50000  153.0000  45.00001  15.50000  0.050000
GW 126   5  173.0000  65.00001  15.50000  153.0000  65.00001  15.50000  0.050000
GW 127   5  173.0000  55.00001  21.50000  173.0000  45.00001  15.50000  0.050000
GW 128   5  173.0000  55.00001  21.50000  173.0000  65.00001  15.50000  0.050000
GW 129   5  153.0000  55.00001  21.50000  153.0000  45.00001  15.50000  0.050000
GW 130   5  153.0000  55.00001  21.50000  153.0000  65.00001  15.50000  0.050000
GW 131   5  173.0000  45.00001  15.50000  173.0000  65.00001  15.50000  0.050000
GW 132   5  153.0000  45.00001  15.50000  153.0000  65.00001  15.50000  0.050000
GW 133   5  173.0000  45.00001  15.50000  173.0000  45.00001  0.500000  0.050000
GW 134   5  153.0000  45.00001  15.50000  153.0000  45.00001  0.500000  0.050000
GW 135   5  173.0000  65.00001  15.50000  173.0000  65.00001  0.500000  0.050000
GW 136   5  153.0000  65.00001  15.50000  153.0000  65.00001  0.500000  0.050000
GW 137   5  173.0000  45.00001  0.500000  153.0000  45.00001  0.500000  0.050000
GW 138   5  173.0000  65.00001  0.500000  153.0000  65.00001  0.500000  0.050000
GW 139   5  173.0000  45.00001  0.500000  173.0000  65.00001  0.500000  0.050000
GW 140   5  153.0000  45.00001  0.500000  153.0000  65.00001  0.500000  0.050000
GW 141   5  83.00000  -47.0000  21.50000  63.00000  -47.0000  21.50000  0.050000
GW 142   5  83.00000  -57.0000  15.50000  63.00000  -57.0000  15.50000  0.050000
GW 143   5  83.00000  -37.0000  15.50000  63.00000  -37.0000  15.50000  0.050000
GW 144   5  83.00000  -47.0000  21.50000  83.00000  -57.0000  15.50000  0.050000
GW 145   5  83.00000  -47.0000  21.50000  83.00000  -37.0000  15.50000  0.050000
GW 146   5  63.00000  -47.0000  21.50000  63.00000  -57.0000  15.50000  0.050000
GW 147   5  63.00000  -47.0000  21.50000  63.00000  -37.0000  15.50000  0.050000
GW 148   5  83.00000  -57.0000  15.50000  83.00000  -37.0000  15.50000  0.050000
GW 149   5  63.00000  -57.0000  15.50000  63.00000  -37.0000  15.50000  0.050000
GW 150   5  83.00000  -57.0000  15.50000  83.00000  -57.0000  0.500000  0.050000
GW 151   5  63.00000  -57.0000  15.50000  63.00000  -57.0000  0.500000  0.050000
GW 152   5  83.00000  -37.0000  15.50000  83.00000  -37.0000  0.500000  0.050000
GW 153   5  63.00000  -37.0000  15.50000  63.00000  -37.0000  0.500000  0.050000
GW 154   5  83.00000  -57.0000  0.500000  63.00000  -57.0000  0.500000  0.050000
GW 155   5  83.00000  -37.0000  0.500000  63.00000  -37.0000  0.500000  0.050000
GW 156   5  83.00000  -57.0000  0.500000  83.00000  -37.0000  0.500000  0.050000
GW 157   5  63.00000  -57.0000  0.500000  63.00000  -37.0000  0.500000  0.050000
GW 158   5  103.0000  -47.0000  21.50000  83.00000  -47.0000  21.50000  0.050000
GW 159   5  103.0000  -57.0000  15.50000  83.00000  -57.0000  15.50000  0.050000
GW 160   5  103.0000  -37.0000  15.50000  83.00000  -37.0000  15.50000  0.050000
GW 161   5  103.0000  -47.0000  21.50000  103.0000  -57.0000  15.50000  0.050000
GW 162   5  103.0000  -47.0000  21.50000  103.0000  -37.0000  15.50000  0.050000
GW 163   5  83.00000  -47.0000  21.50000  83.00000  -57.0000  15.50000  0.050000
GW 164   5  83.00000  -47.0000  21.50000  83.00000  -37.0000  15.50000  0.050000
GW 165   5  103.0000  -57.0000  15.50000  103.0000  -37.0000  15.50000  0.050000
GW 166   5  83.00000  -57.0000  15.50000  83.00000  -37.0000  15.50000  0.050000
GW 167   5  103.0000  -57.0000  15.50000  103.0000  -57.0000  0.500000  0.050000
GW 168   5  83.00000  -57.0000  15.50000  83.00000  -57.0000  0.500000  0.050000
GW 169   5  103.0000  -37.0000  15.50000  103.0000  -37.0000  0.500000  0.050000
GW 170   5  83.00000  -37.0000  15.50000  83.00000  -37.0000  0.500000  0.050000
GW 171   5  103.0000  -57.0000  0.500000  83.00000  -57.0000  0.500000  0.050000
GW 172   5  103.0000  -37.0000  0.500000  83.00000  -37.0000  0.500000  0.050000
GW 173   5  103.0000  -57.0000  0.500000  103.0000  -37.0000  0.500000  0.050000
GW 174   5  83.00000  -57.0000  0.500000  83.00000  -37.0000  0.500000  0.050000
GW 175   5  123.0000  -47.0000  21.50000  103.0000  -47.0000  21.50000  0.050000
GW 176   5  123.0000  -57.0000  15.50000  103.0000  -57.0000  15.50000  0.050000
GW 177   5  123.0000  -37.0000  15.50000  103.0000  -37.0000  15.50000  0.050000
GW 178   5  123.0000  -47.0000  21.50000  123.0000  -57.0000  15.50000  0.050000
GW 179   5  123.0000  -47.0000  21.50000  123.0000  -37.0000  15.50000  0.050000
GW 180   5  103.0000  -47.0000  21.50000  103.0000  -57.0000  15.50000  0.050000
GW 181   5  103.0000  -47.0000  21.50000  103.0000  -37.0000  15.50000  0.050000
GW 182   5  123.0000  -57.0000  15.50000  123.0000  -37.0000  15.50000  0.050000
GW 183   5  103.0000  -57.0000  15.50000  103.0000  -37.0000  15.50000  0.050000
GW 184   5  123.0000  -57.0000  15.50000  123.0000  -57.0000  0.500000  0.050000
GW 185   5  103.0000  -57.0000  15.50000  103.0000  -57.0000  0.500000  0.050000
GW 186   5  123.0000  -37.0000  15.50000  123.0000  -37.0000  0.500000  0.050000
GW 187   5  103.0000  -37.0000  15.50000  103.0000  -37.0000  0.500000  0.050000
GW 188   5  123.0000  -57.0000  0.500000  103.0000  -57.0000  0.500000  0.050000
GW 189   5  123.0000  -37.0000  0.500000  103.0000  -37.0000  0.500000  0.050000
GW 190   5  123.0000  -57.0000  0.500000  123.0000  -37.0000  0.500000  0.050000
GW 191   5  103.0000  -57.0000  0.500000  103.0000  -37.0000  0.500000  0.050000
GW 192   5  2.999997  61.00000  21.50000  -17.0000  61.00000  21.50000  0.050000
GW 193   5  2.999998  51.00000  15.50000  -17.0000  51.00000  15.50000  0.050000
GW 194   5  2.999997  71.00000  15.50000  -17.0000  71.00000  15.50000  0.050000
GW 195   5  2.999997  61.00000  21.50000  2.999998  51.00000  15.50000  0.050000
GW 196   5  2.999997  61.00000  21.50000  2.999997  71.00000  15.50000  0.050000
GW 197   5  -17.0000  61.00000  21.50000  -17.0000  51.00000  15.50000  0.050000
GW 198   5  -17.0000  61.00000  21.50000  -17.0000  71.00000  15.50000  0.050000
GW 199   5  2.999998  51.00000  15.50000  2.999997  71.00000  15.50000  0.050000
GW 200   5  -17.0000  51.00000  15.50000  -17.0000  71.00000  15.50000  0.050000
GW 201   5  2.999998  51.00000  15.50000  2.999998  51.00000  0.500000  0.050000
GW 202   5  -17.0000  51.00000  15.50000  -17.0000  51.00000  0.500000  0.050000
GW 203   5  2.999997  71.00000  15.50000  2.999997  71.00000  0.500000  0.050000
GW 204   5  -17.0000  71.00000  15.50000  -17.0000  71.00000  0.500000  0.050000
GW 205   5  2.999998  51.00000  0.500000  -17.0000  51.00000  0.500000  0.050000
GW 206   5  2.999997  71.00000  0.500000  -17.0000  71.00000  0.500000  0.050000
GW 207   5  2.999998  51.00000  0.500000  2.999997  71.00000  0.500000  0.050000
GW 208   5  -17.0000  51.00000  0.500000  -17.0000  71.00000  0.500000  0.050000
GW 209   5  23.00000  61.00000  21.50000  2.999998  61.00000  21.50000  0.050000
GW 210   5  23.00000  51.00000  15.50000  2.999998  51.00000  15.50000  0.050000
GW 211   5  23.00000  71.00000  15.50000  2.999998  71.00000  15.50000  0.050000
GW 212   5  23.00000  61.00000  21.50000  23.00000  51.00000  15.50000  0.050000
GW 213   5  23.00000  61.00000  21.50000  23.00000  71.00000  15.50000  0.050000
GW 214   5  2.999998  61.00000  21.50000  2.999998  51.00000  15.50000  0.050000
GW 215   5  2.999998  61.00000  21.50000  2.999998  71.00000  15.50000  0.050000
GW 216   5  23.00000  51.00000  15.50000  23.00000  71.00000  15.50000  0.050000
GW 217   5  2.999998  51.00000  15.50000  2.999998  71.00000  15.50000  0.050000
GW 218   5  23.00000  51.00000  15.50000  23.00000  51.00000  0.500000  0.050000
GW 219   5  2.999998  51.00000  15.50000  2.999998  51.00000  0.500000  0.050000
GW 220   5  23.00000  71.00000  15.50000  23.00000  71.00000  0.500000  0.050000
GW 221   5  2.999998  71.00000  15.50000  2.999998  71.00000  0.500000  0.050000
GW 222   5  23.00000  51.00000  0.500000  2.999998  51.00000  0.500000  0.050000
GW 223   5  23.00000  71.00000  0.500000  2.999998  71.00000  0.500000  0.050000
GW 224   5  23.00000  51.00000  0.500000  23.00000  71.00000  0.500000  0.050000
GW 225   5  2.999998  51.00000  0.500000  2.999998  71.00000  0.500000  0.050000
GW 226   5  -17.0000  61.00000  21.50000  -37.0000  61.00000  21.50000  0.050000
GW 227   5  -17.0000  51.00000  15.50000  -37.0000  51.00000  15.50000  0.050000
GW 228   5  -17.0000  71.00000  15.50000  -37.0000  71.00000  15.50000  0.050000
GW 229   5  -17.0000  61.00000  21.50000  -17.0000  51.00000  15.50000  0.050000
GW 230   5  -17.0000  61.00000  21.50000  -17.0000  71.00000  15.50000  0.050000
GW 231   5  -37.0000  61.00000  21.50000  -37.0000  51.00000  15.50000  0.050000
GW 232   5  -37.0000  61.00000  21.50000  -37.0000  71.00000  15.50000  0.050000
GW 233   5  -17.0000  51.00000  15.50000  -17.0000  71.00000  15.50000  0.050000
GW 234   5  -37.0000  51.00000  15.50000  -37.0000  71.00000  15.50000  0.050000
GW 235   5  -17.0000  51.00000  15.50000  -17.0000  51.00000  0.500000  0.050000
GW 236   5  -37.0000  51.00000  15.50000  -37.0000  51.00000  0.500000  0.050000
GW 237   5  -17.0000  71.00000  15.50000  -17.0000  71.00000  0.500000  0.050000
GW 238   5  -37.0000  71.00000  15.50000  -37.0000  71.00000  0.500000  0.050000
GW 239   5  -17.0000  51.00000  0.500000  -37.0000  51.00000  0.500000  0.050000
GW 240   5  -17.0000  71.00000  0.500000  -37.0000  71.00000  0.500000  0.050000
GW 241   5  -17.0000  51.00000  0.500000  -17.0000  71.00000  0.500000  0.050000
GW 242   5  -37.0000  51.00000  0.500000  -37.0000  71.00000  0.500000  0.050000
GW 243   1  0.100000  -0.20000  15.00000  0.100000  0.200000  15.00000  0.010000
GW 244  11  0.100000  -0.20000  15.00000  0.100001  -2.84000  15.00000  0.010000
GW 245  11  0.100000  0.200000  15.00000  0.100000  2.840000  15.00000  0.010000
GW 246  11  0.100001  -2.84000  15.00000  0.100001  -5.05000  15.00000  0.010000
GW 247  11  0.100000  2.840000  15.00000  0.099999  5.050000  15.00000  0.010000
GW 248  11  0.100001  -2.84000  14.99700  0.100001  -2.84000  14.09000  0.010000
GW 249  11  0.100000  2.840000  14.99700  0.100000  2.840000  14.09000  0.010000
GW 250  11  -2.07000  -5.60000  15.00000  -2.07000  5.599999  15.00000  0.010000
GW 251  11  2.670001  -4.60000  15.00000  2.669999  4.600000  15.00000  0.010000
GW 252  11  3.100000  5.42E-07  14.90000  -3.90000 -6.82E-07  14.90000  0.010000
GE  1
FR  0    1    0    0  14.00000  0.000000
GN  0    0    0    0  13.00000  0.005000
EX  0  243    1    1  71.00000  0.000000                                        
XQ
RP  0    1  360 1000  70.00000     0.000     0.000     1.000 5.000E+03
RP  0  360    1 1000   -90.000  360.0000     1.000     0.000 5.000E+03
RP  0   91  120 1001     0.000     0.000     2.000     3.000 5.000E+03
XQ
FR  0    1    0    0  14.03500  0.000000
GN  0    0    0    0  13.00000  0.005000
EX  0  243    1    1  71.00000  0.000000                                        
XQ
RP  0    1  360 1000  70.00000     0.000     0.000     1.000 5.000E+03
RP  0  360    1 1000   -90.000  360.0000     1.000     0.000 5.000E+03
XQ
FR  0    1    0    0  14.07000  0.000000
GN  0    0    0    0  13.00000  0.005000
EX  0  243    1    1  71.00000  0.000000                                        
XQ
RP  0    1  360 1000  70.00000     0.000     0.000     1.000 5.000E+03
RP  0  360    1 1000   -90.000  360.0000     1.000     0.000 5.000E+03
XQ
FR  0    1    0    0  14.10500  0.000000
GN  0    0    0    0  13.00000  0.005000
EX  0  243    1    1  71.00000  0.000000                                        
XQ
RP  0    1  360 1000  70.00000     0.000     0.000     1.000 5.000E+03
RP  0  360    1 1000   -90.000  360.0000     1.000     0.000 5.000E+03
XQ
FR  0    1    0    0  14.14000  0.000000
GN  0    0    0    0  13.00000  0.005000
EX  0  243    1    1  71.00000  0.000000                                        
XQ
RP  0    1  360 1000  70.00000     0.000     0.000     1.000 5.000E+03
RP  0  360    1 1000   -90.000  360.0000     1.000     0.000 5.000E+03
XQ
FR  0    1    0    0  14.17500  0.000000
GN  0    0    0    0  13.00000  0.005000
EX  0  243    1    1  71.00000  0.000000                                        
XQ
RP  0    1  360 1000  70.00000     0.000     0.000     1.000 5.000E+03
RP  0  360    1 1000   -90.000  360.0000     1.000     0.000 5.000E+03
XQ
FR  0    1    0    0  14.21000  0.000000
GN  0    0    0    0  13.00000  0.005000
EX  0  243    1    1  71.00000  0.000000                                        
XQ
RP  0    1  360 1000  70.00000     0.000     0.000     1.000 5.000E+03
RP  0  360    1 1000   -90.000  360.0000     1.000     0.000 5.000E+03
XQ
FR  0    1    0    0  14.24500  0.000000
GN  0    0    0    0  13.00000  0.005000
EX  0  243    1    1  71.00000  0.000000                                        
XQ
RP  0    1  360 1000  70.00000     0.000     0.000     1.000 5.000E+03
RP  0  360    1 1000   -90.000  360.0000     1.000     0.000 5.000E+03
XQ
FR  0    1    0    0  14.28000  0.000000
GN  0    0    0    0  13.00000  0.005000
EX  0  243    1    1  71.00000  0.000000                                        
XQ
RP  0    1  360 1000  70.00000     0.000     0.000     1.000 5.000E+03
RP  0  360    1 1000   -90.000  360.0000     1.000     0.000 5.000E+03
XQ
FR  0    1    0    0  14.31500  0.000000
GN  0    0    0    0  13.00000  0.005000
EX  0  243    1    1  71.00000  0.000000                                        
XQ
RP  0    1  360 1000  70.00000     0.000     0.000     1.000 5.000E+03
RP  0  360    1 1000   -90.000  360.0000     1.000     0.000 5.000E+03
XQ
FR  0    1    0    0  14.35000  0.000000
GN  0    0    0    0  13.00000  0.005000
EX  0  243    1    1  71.00000  0.000000                                        
XQ
RP  0    1  360 1000  70.00000     0.000     0.000     1.000 5.000E+03
RP  0  360    1 1000   -90.000  360.0000     1.000     0.000 5.000E+03
XQ
EN
